/*--------------------------------*- C++ -*----------------------------------*\
  =========                 |
  \\      /  F ield         | OpenFOAM: The Open Source CFD Toolbox
   \\    /   O peration     | Website:  https://openfoam.org
    \\  /    A nd           | Version:  8
     \\/     M anipulation  |
\*---------------------------------------------------------------------------*/
FoamFile
{
    version     2.0;
    format      ascii;
    class       polyBoundaryMesh;
    location    "0.05/polyMesh";
    object      boundary;
}
// * * * * * * * * * * * * * * * * * * * * * * * * * * * * * * * * * * * * * //

5
(
    wall-4
    {
        type            wall;
        inGroups        List<word> 1(wall);
        nFaces          903;
        startFace       70287;
    }
    pressure-outlet-7
    {
        type            patch;
        nFaces          80;
        startFace       71190;
    }
    velocity-inlet-6
    {
        type            patch;
        nFaces          40;
        startFace       71270;
    }
    velocity-inlet-5
    {
        type            patch;
        nFaces          80;
        startFace       71310;
    }
    frontAndBackPlanes
    {
        type            empty;
        inGroups        List<word> 1(empty);
        nFaces          70400;
        startFace       71390;
    }
)

// ************************************************************************* //
